@<TRIPOS>MOLECULE
3-[3-(2-thienyl)-2-furyl]-1~{H}-pyrrole
   24    26     0     0     0
SMALL
USER_CHARGES

@<TRIPOS>ATOM
      1 C1          0.9759    4.4142   -0.0892 C.2       1 <0>        -0.1555
      2 C2          1.0854    3.0216   -0.3699 C.2       1 <0>        -0.1563
      3 C3          0.0427    1.0389    1.9940 C.2       1 <0>        -0.1528
      4 C4         -0.6912    0.5686   -2.4448 C.2       1 <0>        -0.2458
      5 C5          0.6133    0.6383    3.1820 C.2       1 <0>        -0.1720
      6 C6          1.0026   -0.9730    1.6764 C.2       1 <0>        -0.1248
      7 C7         -0.7324   -0.7994   -2.3067 C.2       1 <0>         0.2313
      8 C8         -0.2925    4.8931   -0.3329 C.2       1 <0>        -0.1830
      9 C9          0.2891    0.0196    1.0414 C.2       1 <0>        -0.2229
     10 C10        -0.2948    1.0789   -1.1856 C.2       1 <0>        -0.1374
     11 C11        -0.1223   -0.0135   -0.3677 C.2       1 <0>         0.3472
     12 C12        -0.1038    2.4891   -0.8174 C.2       1 <0>        -0.0209
     13 N1          1.1936   -0.5863    2.9772 N.pl3     1 <0>        -0.1756
     14 O1         -0.3871   -1.1623   -1.0435 O.3       1 <0>        -0.3468
     15 S1         -1.3449    3.6661   -0.8978 S.3       1 <0>         0.0308
     16 H1          1.7863    5.0329    0.2739 H         1 <0>         0.1503
     17 H2          1.9951    2.4467   -0.2468 H         1 <0>         0.1521
     18 H3         -0.4918    1.9661    1.8376 H         1 <0>         0.1617
     19 H4         -0.9196    1.1226   -3.3441 H         1 <0>         0.1626
     20 H5          0.6571    1.1138    4.1518 H         1 <0>         0.1682
     21 H6          1.3920   -1.9187    1.3249 H         1 <0>         0.1736
     22 H7         -0.9753   -1.6115   -2.9764 H         1 <0>         0.0520
     23 H8         -0.6519    5.9045   -0.2058 H         1 <0>         0.1676
     24 H9          1.6875   -1.1219    3.6776 H         1 <0>         0.2965
@<TRIPOS>BOND
     1    1    2 1
     2    1    8 2
     3    2   12 2
     4    3    5 2
     5    3    9 1
     6    4    7 2
     7    4   10 1
     8    5   13 1
     9    6    9 2
    10    6   13 1
    11    7   14 1
    12    8   15 1
    13    9   11 1
    14   10   11 2
    15   10   12 1
    16   11   14 1
    17   12   15 1
    18    1   16 1
    19    2   17 1
    20    3   18 1
    21    4   19 1
    22    5   20 1
    23    6   21 1
    24    7   22 1
    25    8   23 1
    26   13   24 1
