@<TRIPOS>MOLECULE
1,2,3-triphenylbenzene
   42    45     0     0     0
SMALL
USER_CHARGES

@<TRIPOS>ATOM
      1 C1          1.8860   -1.0373   -0.1124 C.ar      1 <0>        -0.1276
      2 C2         -2.4664    1.0871    8.5154 C.ar      1 <0>        -0.1276
      3 C3         -2.5205    1.3002    2.7597 C.ar      1 <0>        -0.1266
      4 C4          1.2810   -2.1049    0.5508 C.ar      1 <0>        -0.1309
      5 C5          2.4479    0.0096    0.6183 C.ar      1 <0>        -0.1309
      6 C6         -1.3637    1.8696    8.1734 C.ar      1 <0>        -0.1309
      7 C7         -2.5306   -0.2447    8.1055 C.ar      1 <0>        -0.1309
      8 C8         -2.5752   -0.0593    3.0667 C.ar      1 <0>        -0.1305
      9 C9         -1.4093    2.0557    3.1343 C.ar      1 <0>        -0.1305
     10 C10         2.8080   -1.7487    6.1971 C.ar      1 <0>        -0.1321
     11 C11         1.2378   -2.1255    1.9449 C.ar      1 <0>        -0.1117
     12 C12         2.4047   -0.0111    2.0124 C.ar      1 <0>        -0.1117
     13 C13        -0.3251    1.3205    7.4214 C.ar      1 <0>        -0.1117
     14 C14        -1.4921   -0.7938    7.3535 C.ar      1 <0>        -0.1117
     15 C15        -1.5187   -0.6634    3.7484 C.ar      1 <0>        -0.1087
     16 C16        -0.3528    1.4516    3.8159 C.ar      1 <0>        -0.1087
     17 C17         2.8112   -1.7053    4.8030 C.ar      1 <0>        -0.1170
     18 C18         1.7485   -1.1874    6.9100 C.ar      1 <0>        -0.1170
     19 C19         1.7997   -1.0786    2.6757 C.ar      1 <0>        -0.0408
     20 C20        -0.3893   -0.0112    7.0114 C.ar      1 <0>        -0.0408
     21 C21        -0.4075    0.0920    4.1230 C.ar      1 <0>        -0.0349
     22 C22         1.7549   -1.1005    4.1216 C.ar      1 <0>        -0.0320
     23 C23         0.6923   -0.5826    6.2287 C.ar      1 <0>        -0.0320
     24 C24         0.6954   -0.5392    4.8345 C.ar      1 <0>        -0.0132
     25 H1          1.9210   -1.0223   -1.1978 H         1 <0>         0.1289
     26 H2         -3.2742    1.5143    9.1024 H         1 <0>         0.1289
     27 H3         -3.3424    1.7700    2.2275 H         1 <0>         0.1289
     28 H4          0.8450   -2.9209   -0.0180 H         1 <0>         0.1314
     29 H5          2.9204    0.8404    0.1026 H         1 <0>         0.1314
     30 H6         -1.3127    2.9061    8.4939 H         1 <0>         0.1314
     31 H7         -3.3884   -0.8551    8.3727 H         1 <0>         0.1314
     32 H8         -3.4395   -0.6480    2.7737 H         1 <0>         0.1300
     33 H9         -1.3654    3.1140    2.8943 H         1 <0>         0.1300
     34 H10         3.6311   -2.2185    6.7276 H         1 <0>         0.1332
     35 H11         0.7628   -2.9650    2.4473 H         1 <0>         0.1352
     36 H12         2.8475    0.8117    2.5687 H         1 <0>         0.1352
     37 H13         0.5280    1.9435    7.1629 H         1 <0>         0.1352
     38 H14        -1.5558   -1.8336    7.0416 H         1 <0>         0.1352
     39 H15        -1.5762   -1.7244    3.9802 H         1 <0>         0.1323
     40 H16         0.5071    2.0531    4.1009 H         1 <0>         0.1323
     41 H17         3.6461   -2.1463    4.2632 H         1 <0>         0.1396
     42 H18         1.7626   -1.2300    7.9965 H         1 <0>         0.1396
@<TRIPOS>BOND
     1    1    4 ar
     2    1    5 ar
     3    2    6 ar
     4    2    7 ar
     5    3    8 ar
     6    3    9 ar
     7    4   11 ar
     8    5   12 ar
     9    6   13 ar
    10    7   14 ar
    11    8   15 ar
    12    9   16 ar
    13   10   17 ar
    14   10   18 ar
    15   11   19 ar
    16   12   19 ar
    17   13   20 ar
    18   14   20 ar
    19   15   21 ar
    20   16   21 ar
    21   17   22 ar
    22   18   23 ar
    23   19   22 1
    24   20   23 1
    25   21   24 1
    26   22   24 ar
    27   23   24 ar
    28    1   25 1
    29    2   26 1
    30    3   27 1
    31    4   28 1
    32    5   29 1
    33    6   30 1
    34    7   31 1
    35    8   32 1
    36    9   33 1
    37   10   34 1
    38   11   35 1
    39   12   36 1
    40   13   37 1
    41   14   38 1
    42   15   39 1
    43   16   40 1
    44   17   41 1
    45   18   42 1
