@<TRIPOS>MOLECULE
1,2,3,4-tetraphenylbenzene
   52    56     0     0     0
SMALL
USER_CHARGES

@<TRIPOS>ATOM
      1 C1          1.8862   -1.0355   -0.1124 C.ar      1 <0>        -0.1275
      2 C2          1.2035   -1.0323   11.1304 C.ar      1 <0>        -0.1272
      3 C3          6.1034   -3.4609    2.9441 C.ar      1 <0>        -0.1263
      4 C4          5.7590   -3.4591    8.6040 C.ar      1 <0>        -0.1263
      5 C5          2.4478    0.0110    0.6190 C.ar      1 <0>        -0.1306
      6 C6          1.2812   -2.1035    0.5502 C.ar      1 <0>        -0.1306
      7 C7          0.6832   -2.1006   10.3999 C.ar      1 <0>        -0.1306
      8 C8          1.8495    0.0140   10.4719 C.ar      1 <0>        -0.1306
      9 C9          6.1389   -2.1121    3.2978 C.ar      1 <0>        -0.1302
     10 C10         4.9723   -4.2266    3.2269 C.ar      1 <0>        -0.1302
     11 C11         4.6704   -4.2247    8.1866 C.ar      1 <0>        -0.1302
     12 C12         5.8376   -2.1105    8.2564 C.ar      1 <0>        -0.1302
     13 C13         2.4046   -0.0106    2.0131 C.ar      1 <0>        -0.1115
     14 C14         1.2380   -2.1251    1.9442 C.ar      1 <0>        -0.1115
     15 C15         0.8090   -2.1227    9.0109 C.ar      1 <0>        -0.1115
     16 C16         1.9754   -0.0081    9.0829 C.ar      1 <0>        -0.1115
     17 C17         5.0433   -1.5290    3.9344 C.ar      1 <0>        -0.1084
     18 C18         3.8767   -3.6434    3.8635 C.ar      1 <0>        -0.1084
     19 C19         3.6603   -3.6418    7.4214 C.ar      1 <0>        -0.1084
     20 C20         4.8275   -1.5276    7.4911 C.ar      1 <0>        -0.1084
     21 C21         0.6575   -0.5156    4.7536 C.ar      1 <0>        -0.1191
     22 C22         0.5729   -0.5153    6.1458 C.ar      1 <0>        -0.1191
     23 C23         1.7997   -1.0786    2.6757 C.ar      1 <0>        -0.0419
     24 C24         1.4552   -1.0765    8.3524 C.ar      1 <0>        -0.0419
     25 C25         3.9122   -2.2946    4.2172 C.ar      1 <0>        -0.0352
     26 C26         3.7388   -2.2933    7.0736 C.ar      1 <0>        -0.0352
     27 C27         1.7549   -1.1005    4.1216 C.ar      1 <0>        -0.0311
     28 C28         1.5858   -1.0997    6.9062 C.ar      1 <0>        -0.0311
     29 C29         2.7678   -1.6850    4.8820 C.ar      1 <0>        -0.0158
     30 C30         2.6832   -1.6846    6.2743 C.ar      1 <0>        -0.0158
     31 H1          1.9184   -1.0176   -1.1978 H         1 <0>         0.1290
     32 H2          1.1038   -1.0145   12.2117 H         1 <0>         0.1290
     33 H3          6.9559   -3.9143    2.4470 H         1 <0>         0.1287
     34 H4          6.5445   -3.9128    9.2013 H         1 <0>         0.1287
     35 H5          2.9173    0.8435    0.1033 H         1 <0>         0.1315
     36 H6          0.8425   -2.9180   -0.0187 H         1 <0>         0.1315
     37 H7          0.1786   -2.9145   10.9123 H         1 <0>         0.1315
     38 H8          2.2536    0.8468   11.0399 H         1 <0>         0.1315
     39 H9          7.0189   -1.5154    3.0762 H         1 <0>         0.1300
     40 H10         4.9434   -5.2765    2.9505 H         1 <0>         0.1300
     41 H11         4.6083   -5.2743    8.4586 H         1 <0>         0.1300
     42 H12         6.6842   -1.5134    8.5822 H         1 <0>         0.1300
     43 H13         2.8467    0.8129    2.5691 H         1 <0>         0.1354
     44 H14         0.7626   -2.9640    2.4469 H         1 <0>         0.1354
     45 H15         0.3979   -2.9625    8.4555 H         1 <0>         0.1354
     46 H16         2.4810    0.8148    8.5833 H         1 <0>         0.1354
     47 H17         5.0863   -0.4762    4.2035 H         1 <0>         0.1329
     48 H18         3.0016   -4.2526    4.0769 H         1 <0>         0.1329
     49 H19         2.8180   -4.2520    7.1038 H         1 <0>         0.1329
     50 H20         4.9020   -0.4751    7.2283 H         1 <0>         0.1329
     51 H21        -0.1410   -0.0552    4.1765 H         1 <0>         0.1410
     52 H22        -0.2892   -0.0539    6.6216 H         1 <0>         0.1410
@<TRIPOS>BOND
     1    1    5 ar
     2    1    6 ar
     3    2    7 ar
     4    2    8 ar
     5    3    9 ar
     6    3   10 ar
     7    4   11 ar
     8    4   12 ar
     9    5   13 ar
    10    6   14 ar
    11    7   15 ar
    12    8   16 ar
    13    9   17 ar
    14   10   18 ar
    15   11   19 ar
    16   12   20 ar
    17   13   23 ar
    18   14   23 ar
    19   15   24 ar
    20   16   24 ar
    21   17   25 ar
    22   18   25 ar
    23   19   26 ar
    24   20   26 ar
    25   21   22 ar
    26   21   27 ar
    27   22   28 ar
    28   23   27 1
    29   24   28 1
    30   25   29 1
    31   26   30 1
    32   27   29 ar
    33   28   30 ar
    34   29   30 ar
    35    1   31 1
    36    2   32 1
    37    3   33 1
    38    4   34 1
    39    5   35 1
    40    6   36 1
    41    7   37 1
    42    8   38 1
    43    9   39 1
    44   10   40 1
    45   11   41 1
    46   12   42 1
    47   13   43 1
    48   14   44 1
    49   15   45 1
    50   16   46 1
    51   17   47 1
    52   18   48 1
    53   19   49 1
    54   20   50 1
    55   21   51 1
    56   22   52 1
