@<TRIPOS>MOLECULE
3-methylenepenta-1,4-diene
   14    13     0     0     0
SMALL
USER_CHARGES

@<TRIPOS>ATOM
      1 C1         -2.2164    0.6715   -1.8093 C.2       1 <0>        -0.2095
      2 C2         -3.1274   -3.4942   -1.8912 C.2       1 <0>        -0.2095
      3 C3         -2.1637   -1.9775   -4.3329 C.2       1 <0>        -0.1998
      4 C4         -2.1231   -0.0148   -2.9554 C.2       1 <0>        -0.1284
      5 C5         -2.4216   -2.3570   -1.9413 C.2       1 <0>        -0.1284
      6 C6         -2.2951   -1.4625   -3.0938 C.2       1 <0>        -0.0525
      7 H1         -2.0804    1.7461   -1.7585 H         1 <0>         0.1132
      8 H2         -2.4279    0.1514   -0.8806 H         1 <0>         0.1132
      9 H3         -3.1783   -4.1114   -1.0012 H         1 <0>         0.1132
     10 H4         -3.6690   -3.8359   -2.7673 H         1 <0>         0.1132
     11 H5         -2.2727   -3.0378   -4.5387 H         1 <0>         0.1156
     12 H6         -1.9364   -1.3519   -5.1919 H         1 <0>         0.1156
     13 H7         -1.9175    0.5496   -3.8632 H         1 <0>         0.1221
     14 H8         -1.9060   -2.0425   -1.0361 H         1 <0>         0.1221
@<TRIPOS>BOND
     1    1    4 2
     2    2    5 2
     3    3    6 2
     4    4    6 1
     5    5    6 1
     6    1    7 1
     7    1    8 1
     8    2    9 1
     9    2   10 1
    10    3   11 1
    11    3   12 1
    12    4   13 1
    13    5   14 1
