@<TRIPOS>MOLECULE
biphenyl
   22    23     0     0     0
SMALL
USER_CHARGES

@<TRIPOS>ATOM
      1 C1          1.8851   -1.0363   -0.1124 C.ar      1 <0>        -0.1282
      2 C2          1.6694   -1.1431    6.9097 C.ar      1 <0>        -0.1281
      3 C3          0.8066   -0.4630    0.5610 C.ar      1 <0>        -0.1301
      4 C4          2.9210   -1.6309    0.6081 C.ar      1 <0>        -0.1301
      5 C5          2.8979   -1.1096    6.2501 C.ar      1 <0>        -0.1301
      6 C6          0.4836   -1.1555    6.1753 C.ar      1 <0>        -0.1301
      7 C7          0.7638   -0.4841    1.9551 C.ar      1 <0>        -0.1198
      8 C8          2.8783   -1.6520    2.0022 C.ar      1 <0>        -0.1198
      9 C9          2.9407   -1.0882    4.8561 C.ar      1 <0>        -0.1198
     10 C10         0.5263   -1.1342    4.7813 C.ar      1 <0>        -0.1198
     11 C11         1.7997   -1.0786    2.6757 C.ar      1 <0>        -0.0375
     12 C12         1.7549   -1.1005    4.1216 C.ar      1 <0>        -0.0375
     13 H1          1.9174   -1.0212   -1.1979 H         1 <0>         0.1303
     14 H2          1.6364   -1.1615    7.9951 H         1 <0>         0.1303
     15 H3         -0.0009   -0.0015    0.0001 H         1 <0>         0.1313
     16 H4          3.7605   -2.0787    0.0844 H         1 <0>         0.1313
     17 H5          3.8214   -1.1016    6.8218 H         1 <0>         0.1313
     18 H6         -0.4734   -1.1831    6.6882 H         1 <0>         0.1313
     19 H7         -0.0840   -0.0332    2.4655 H         1 <0>         0.1362
     20 H8          3.6927   -2.1196    2.5504 H         1 <0>         0.1362
     21 H9          3.9064   -1.0624    4.3566 H         1 <0>         0.1362
     22 H10        -0.4063   -1.1448    4.2221 H         1 <0>         0.1362
@<TRIPOS>BOND
     1    1    3 ar
     2    1    4 ar
     3    2    5 ar
     4    2    6 ar
     5    3    7 ar
     6    4    8 ar
     7    5    9 ar
     8    6   10 ar
     9    7   11 ar
    10    8   11 ar
    11    9   12 ar
    12   10   12 ar
    13   11   12 1
    14    1   13 1
    15    2   14 1
    16    3   15 1
    17    4   16 1
    18    5   17 1
    19    6   18 1
    20    7   19 1
    21    8   20 1
    22    9   21 1
    23   10   22 1
