@<TRIPOS>MOLECULE
1,2,3,4-tetraphenylbenzene
   52    56     1     0     0
SMALL
No Charge or Current Charge


@<TRIPOS>ATOM
      1 C1           1.8860    -1.0360    -0.1120 ca         1 <0>      -0.127500
      2 C2           1.2040    -1.0320    11.1300 ca         1 <0>      -0.127200
      3 C3           6.1030    -3.4610     2.9440 ca         1 <0>      -0.126300
      4 C4           5.7590    -3.4590     8.6040 ca         1 <0>      -0.126300
      5 C5           2.4480     0.0110     0.6190 ca         1 <0>      -0.130600
      6 C6           1.2810    -2.1030     0.5500 ca         1 <0>      -0.130600
      7 C7           0.6830    -2.1010    10.4000 ca         1 <0>      -0.130600
      8 C8           1.8490     0.0140    10.4720 ca         1 <0>      -0.130600
      9 C9           6.1390    -2.1120     3.2980 ca         1 <0>      -0.130200
     10 C10          4.9720    -4.2270     3.2270 ca         1 <0>      -0.130200
     11 C11          4.6700    -4.2250     8.1870 ca         1 <0>      -0.130200
     12 C12          5.8380    -2.1110     8.2560 ca         1 <0>      -0.130200
     13 C13          2.4050    -0.0110     2.0130 ca         1 <0>      -0.111500
     14 C14          1.2380    -2.1250     1.9440 ca         1 <0>      -0.111500
     15 C15          0.8090    -2.1230     9.0110 ca         1 <0>      -0.111500
     16 C16          1.9750    -0.0080     9.0830 ca         1 <0>      -0.111500
     17 C17          5.0430    -1.5290     3.9340 ca         1 <0>      -0.108400
     18 C18          3.8770    -3.6430     3.8640 ca         1 <0>      -0.108400
     19 C19          3.6600    -3.6420     7.4210 ca         1 <0>      -0.108400
     20 C20          4.8270    -1.5280     7.4910 ca         1 <0>      -0.108400
     21 C21          0.6570    -0.5160     4.7540 ca         1 <0>      -0.119100
     22 C22          0.5730    -0.5150     6.1460 ca         1 <0>      -0.119100
     23 C23          1.8000    -1.0790     2.6760 cp         1 <0>      -0.041900
     24 C24          1.4550    -1.0770     8.3520 cq         1 <0>      -0.041900
     25 C25          3.9120    -2.2950     4.2170 cq         1 <0>      -0.035200
     26 C26          3.7390    -2.2930     7.0740 cp         1 <0>      -0.035200
     27 C27          1.7550    -1.1010     4.1220 cp         1 <0>      -0.031100
     28 C28          1.5860    -1.1000     6.9060 cq         1 <0>      -0.031100
     29 C29          2.7680    -1.6850     4.8820 cq         1 <0>      -0.015800
     30 C30          2.6830    -1.6850     6.2740 cp         1 <0>      -0.015800
     31 H1           1.9180    -1.0180    -1.1980 ha         1 <0>       0.129000
     32 H2           1.1040    -1.0140    12.2120 ha         1 <0>       0.129000
     33 H3           6.9560    -3.9140     2.4470 ha         1 <0>       0.128700
     34 H4           6.5450    -3.9130     9.2010 ha         1 <0>       0.128700
     35 H5           2.9170     0.8440     0.1030 ha         1 <0>       0.131500
     36 H6           0.8430    -2.9180    -0.0190 ha         1 <0>       0.131500
     37 H7           0.1790    -2.9140    10.9120 ha         1 <0>       0.131500
     38 H8           2.2540     0.8470    11.0400 ha         1 <0>       0.131500
     39 H9           7.0190    -1.5150     3.0760 ha         1 <0>       0.130000
     40 H10          4.9430    -5.2770     2.9500 ha         1 <0>       0.130000
     41 H11          4.6080    -5.2740     8.4590 ha         1 <0>       0.130000
     42 H12          6.6840    -1.5130     8.5820 ha         1 <0>       0.130000
     43 H13          2.8470     0.8130     2.5690 ha         1 <0>       0.135400
     44 H14          0.7630    -2.9640     2.4470 ha         1 <0>       0.135400
     45 H15          0.3980    -2.9620     8.4560 ha         1 <0>       0.135400
     46 H16          2.4810     0.8150     8.5830 ha         1 <0>       0.135400
     47 H17          5.0860    -0.4760     4.2040 ha         1 <0>       0.132900
     48 H18          3.0020    -4.2530     4.0770 ha         1 <0>       0.132900
     49 H19          2.8180    -4.2520     7.1040 ha         1 <0>       0.132900
     50 H20          4.9020    -0.4750     7.2280 ha         1 <0>       0.132900
     51 H21         -0.1410    -0.0550     4.1760 ha         1 <0>       0.141000
     52 H22         -0.2890    -0.0540     6.6220 ha         1 <0>       0.141000
@<TRIPOS>BOND
     1     1     5 ar  
     2     1     6 ar  
     3     2     7 ar  
     4     2     8 ar  
     5     3     9 ar  
     6     3    10 ar  
     7     4    11 ar  
     8     4    12 ar  
     9     5    13 ar  
    10     6    14 ar  
    11     7    15 ar  
    12     8    16 ar  
    13     9    17 ar  
    14    10    18 ar  
    15    11    19 ar  
    16    12    20 ar  
    17    13    23 ar  
    18    14    23 ar  
    19    15    24 1   
    20    16    24 2   
    21    17    25 1   
    22    18    25 2   
    23    19    26 ar  
    24    20    26 ar  
    25    21    22 ar  
    26    21    27 ar  
    27    22    28 2   
    28    23    27 1   
    29    24    28 1   
    30    25    29 1   
    31    26    30 1   
    32    27    29 1   
    33    28    30 1   
    34    29    30 2   
    35     1    31 1   
    36     2    32 1   
    37     3    33 1   
    38     4    34 1   
    39     5    35 1   
    40     6    36 1   
    41     7    37 1   
    42     8    38 1   
    43     9    39 1   
    44    10    40 1   
    45    11    41 1   
    46    12    42 1   
    47    13    43 1   
    48    14    44 1   
    49    15    45 1   
    50    16    46 1   
    51    17    47 1   
    52    18    48 1   
    53    19    49 1   
    54    20    50 1   
    55    21    51 1   
    56    22    52 1   
@<TRIPOS>SUBSTRUCTURE
     1 <0>         1 TEMP              0 ****  ****    0 ROOT
