@<TRIPOS>MOLECULE
1,2-diphenylbenzene
   32    34     1     0     0
SMALL
No Charge or Current Charge


@<TRIPOS>ATOM
      1 C1           1.8860    -1.0360    -0.1120 ca         1 <0>      -0.128000
      2 C2           6.1470    -3.4890     3.0510 ca         1 <0>      -0.127800
      3 C3           2.4480     0.0110     0.6190 ca         1 <0>      -0.131300
      4 C4           1.2810    -2.1040     0.5500 ca         1 <0>      -0.131300
      5 C5           5.0090    -4.2500     3.3170 ca         1 <0>      -0.131300
      6 C6           6.1760    -2.1350     3.3850 ca         1 <0>      -0.131300
      7 C7           0.5810    -0.5190     6.1520 ca         1 <0>      -0.129900
      8 C8           1.5970    -1.1040     6.9070 ca         1 <0>      -0.129900
      9 C9           2.4040    -0.0100     2.0130 ca         1 <0>      -0.112200
     10 C10          1.2380    -2.1250     1.9440 ca         1 <0>      -0.112200
     11 C11          3.8980    -3.6560     3.9170 ca         1 <0>      -0.112200
     12 C12          5.0650    -1.5420     3.9860 ca         1 <0>      -0.112200
     13 C13          0.6600    -0.5170     4.7590 ca         1 <0>      -0.119400
     14 C14          2.6930    -1.6870     6.2700 ca         1 <0>      -0.119400
     15 C15          1.8000    -1.0790     2.6760 cp         1 <0>      -0.039800
     16 C16          3.9270    -2.3020     4.2520 cq         1 <0>      -0.039800
     17 C17          1.7550    -1.1010     4.1220 cp         1 <0>      -0.028000
     18 C18          2.7710    -1.6850     4.8770 cq         1 <0>      -0.028000
     19 H1           1.9180    -1.0180    -1.1980 ha         1 <0>       0.129200
     20 H2           7.0120    -3.9520     2.5840 ha         1 <0>       0.129200
     21 H3           2.9170     0.8440     0.1030 ha         1 <0>       0.131300
     22 H4           0.8430    -2.9180    -0.0190 ha         1 <0>       0.131300
     23 H5           4.9870    -5.3040     3.0580 ha         1 <0>       0.131300
     24 H6           7.0620    -1.5430     3.1790 ha         1 <0>       0.131300
     25 H7          -0.2720    -0.0640     6.6480 ha         1 <0>       0.132700
     26 H8           1.5360    -1.1040     7.9910 ha         1 <0>       0.132700
     27 H9           2.8460     0.8130     2.5690 ha         1 <0>       0.134700
     28 H10          0.7630    -2.9640     2.4470 ha         1 <0>       0.134700
     29 H11          3.0180    -4.2630     4.1190 ha         1 <0>       0.134700
     30 H12          5.1020    -0.4850     4.2410 ha         1 <0>       0.134700
     31 H13         -0.1410    -0.0560     4.1860 ha         1 <0>       0.138000
     32 H14          3.4760    -2.1380     6.8740 ha         1 <0>       0.138000
@<TRIPOS>BOND
     1     1     3 ar  
     2     1     4 ar  
     3     2     5 ar  
     4     2     6 ar  
     5     3     9 ar  
     6     4    10 ar  
     7     5    11 ar  
     8     6    12 ar  
     9     7     8 ar  
    10     7    13 ar  
    11     8    14 ar  
    12     9    15 ar  
    13    10    15 ar  
    14    11    16 1   
    15    12    16 2   
    16    13    17 ar  
    17    14    18 1   
    18    15    17 1   
    19    16    18 1   
    20    17    18 2   
    21     1    19 1   
    22     2    20 1   
    23     3    21 1   
    24     4    22 1   
    25     5    23 1   
    26     6    24 1   
    27     7    25 1   
    28     8    26 1   
    29     9    27 1   
    30    10    28 1   
    31    11    29 1   
    32    12    30 1   
    33    13    31 1   
    34    14    32 1   
@<TRIPOS>SUBSTRUCTURE
     1 <0>         1 TEMP              0 ****  ****    0 ROOT
