@<TRIPOS>MOLECULE
3-methylenepenta-1,4-diene
   14    13     1     0     0
SMALL
No Charge or Current Charge


@<TRIPOS>ATOM
      1 C1          -2.2160     0.6710    -1.8090 c2         1 <0>      -0.209500
      2 C2          -3.1270    -3.4940    -1.8910 c2         1 <0>      -0.209500
      3 C3          -2.1640    -1.9780    -4.3330 c2         1 <0>      -0.199800
      4 C4          -2.1230    -0.0150    -2.9550 ce         1 <0>      -0.128400
      5 C5          -2.4220    -2.3570    -1.9410 ce         1 <0>      -0.128400
      6 C6          -2.2950    -1.4620    -3.0940 ce         1 <0>      -0.052500
      7 H1          -2.0800     1.7460    -1.7580 ha         1 <0>       0.113200
      8 H2          -2.4280     0.1510    -0.8810 ha         1 <0>       0.113200
      9 H3          -3.1780    -4.1110    -1.0010 ha         1 <0>       0.113200
     10 H4          -3.6690    -3.8360    -2.7670 ha         1 <0>       0.113200
     11 H5          -2.2730    -3.0380    -4.5390 ha         1 <0>       0.115600
     12 H6          -1.9360    -1.3520    -5.1920 ha         1 <0>       0.115600
     13 H7          -1.9170     0.5500    -3.8630 ha         1 <0>       0.122100
     14 H8          -1.9060    -2.0420    -1.0360 ha         1 <0>       0.122100
@<TRIPOS>BOND
     1     1     4 2   
     2     2     5 2   
     3     3     6 2   
     4     4     6 1   
     5     5     6 1   
     6     1     7 1   
     7     1     8 1   
     8     2     9 1   
     9     2    10 1   
    10     3    11 1   
    11     3    12 1   
    12     4    13 1   
    13     5    14 1   
@<TRIPOS>SUBSTRUCTURE
     1 <0>         1 TEMP              0 ****  ****    0 ROOT
