@<TRIPOS>MOLECULE
biphenyl
   22    23     1     0     0
SMALL
No Charge or Current Charge


@<TRIPOS>ATOM
      1 C1           1.8850    -1.0360    -0.1120 ca         1 <0>      -0.128200
      2 C2           1.6690    -1.1430     6.9100 ca         1 <0>      -0.128100
      3 C3           0.8070    -0.4630     0.5610 ca         1 <0>      -0.130100
      4 C4           2.9210    -1.6310     0.6080 ca         1 <0>      -0.130100
      5 C5           2.8980    -1.1100     6.2500 ca         1 <0>      -0.130100
      6 C6           0.4840    -1.1550     6.1750 ca         1 <0>      -0.130100
      7 C7           0.7640    -0.4840     1.9550 ca         1 <0>      -0.119800
      8 C8           2.8780    -1.6520     2.0020 ca         1 <0>      -0.119800
      9 C9           2.9410    -1.0880     4.8560 ca         1 <0>      -0.119800
     10 C10          0.5260    -1.1340     4.7810 ca         1 <0>      -0.119800
     11 C11          1.8000    -1.0790     2.6760 cp         1 <0>      -0.037500
     12 C12          1.7550    -1.1010     4.1220 cp         1 <0>      -0.037500
     13 H1           1.9170    -1.0210    -1.1980 ha         1 <0>       0.130300
     14 H2           1.6360    -1.1610     7.9950 ha         1 <0>       0.130300
     15 H3          -0.0010    -0.0020     0.0000 ha         1 <0>       0.131300
     16 H4           3.7600    -2.0790     0.0840 ha         1 <0>       0.131300
     17 H5           3.8210    -1.1020     6.8220 ha         1 <0>       0.131300
     18 H6          -0.4730    -1.1830     6.6880 ha         1 <0>       0.131300
     19 H7          -0.0840    -0.0330     2.4660 ha         1 <0>       0.136200
     20 H8           3.6930    -2.1200     2.5500 ha         1 <0>       0.136200
     21 H9           3.9060    -1.0620     4.3570 ha         1 <0>       0.136200
     22 H10         -0.4060    -1.1450     4.2220 ha         1 <0>       0.136200
@<TRIPOS>BOND
     1     1     3 ar  
     2     1     4 ar  
     3     2     5 ar  
     4     2     6 ar  
     5     3     7 ar  
     6     4     8 ar  
     7     5     9 ar  
     8     6    10 ar  
     9     7    11 ar  
    10     8    11 ar  
    11     9    12 ar  
    12    10    12 ar  
    13    11    12 1   
    14     1    13 1   
    15     2    14 1   
    16     3    15 1   
    17     4    16 1   
    18     5    17 1   
    19     6    18 1   
    20     7    19 1   
    21     8    20 1   
    22     9    21 1   
    23    10    22 1   
@<TRIPOS>SUBSTRUCTURE
     1 <0>         1 TEMP              0 ****  ****    0 ROOT
