@<TRIPOS>MOLECULE
3-[3-(2-thienyl)-2-furyl]-1~{H}-pyrrole
   24    26     1     0     0
SMALL
No Charge or Current Charge


@<TRIPOS>ATOM
      1 C1           0.9760     4.4140    -0.0890 cc         1 <0>      -0.155500
      2 C2           1.0850     3.0220    -0.3700 cc         1 <0>      -0.156300
      3 C3           0.0430     1.0390     1.9940 cc         1 <0>      -0.152800
      4 C4          -0.6910     0.5690    -2.4450 cd         1 <0>      -0.245800
      5 C5           0.6130     0.6380     3.1820 cd         1 <0>      -0.172000
      6 C6           1.0030    -0.9730     1.6760 cd         1 <0>      -0.124800
      7 C7          -0.7320    -0.7990    -2.3070 cc         1 <0>       0.231300
      8 C8          -0.2920     4.8930    -0.3330 cd         1 <0>      -0.183000
      9 C9           0.2890     0.0200     1.0410 cc         1 <0>      -0.222900
     10 C10         -0.2950     1.0790    -1.1860 cd         1 <0>      -0.137400
     11 C11         -0.1220    -0.0130    -0.3680 cc         1 <0>       0.347200
     12 C12         -0.1040     2.4890    -0.8170 cd         1 <0>      -0.020900
     13 N1           1.1940    -0.5860     2.9770 na         1 <0>      -0.175600
     14 O1          -0.3870    -1.1620    -1.0440 os         1 <0>      -0.346800
     15 S1          -1.3450     3.6660    -0.8980 ss         1 <0>       0.030800
     16 H1           1.7860     5.0330     0.2740 ha         1 <0>       0.150300
     17 H2           1.9950     2.4470    -0.2470 ha         1 <0>       0.152100
     18 H3          -0.4920     1.9660     1.8380 ha         1 <0>       0.161700
     19 H4          -0.9200     1.1230    -3.3440 ha         1 <0>       0.162600
     20 H5           0.6570     1.1140     4.1520 h4         1 <0>       0.168200
     21 H6           1.3920    -1.9190     1.3250 h4         1 <0>       0.173600
     22 H7          -0.9750    -1.6110    -2.9760 h4         1 <0>       0.052000
     23 H8          -0.6520     5.9040    -0.2060 h4         1 <0>       0.167600
     24 H9           1.6880    -1.1220     3.6780 hn         1 <0>       0.296500
@<TRIPOS>BOND
     1     1     2 1   
     2     1     8 2   
     3     2    12 2   
     4     3     5 2   
     5     3     9 1   
     6     4     7 2   
     7     4    10 1   
     8     5    13 1   
     9     6     9 2   
    10     6    13 1   
    11     7    14 1   
    12     8    15 1   
    13     9    11 1   
    14    10    11 2   
    15    10    12 1   
    16    11    14 1   
    17    12    15 1   
    18     1    16 1   
    19     2    17 1   
    20     3    18 1   
    21     4    19 1   
    22     5    20 1   
    23     6    21 1   
    24     7    22 1   
    25     8    23 1   
    26    13    24 1   
@<TRIPOS>SUBSTRUCTURE
     1 <0>         1 TEMP              0 ****  ****    0 ROOT
