@<TRIPOS>MOLECULE
1,2,3-triphenylbenzene
   42    45     1     0     0
SMALL
No Charge or Current Charge


@<TRIPOS>ATOM
      1 C1           1.8860    -1.0370    -0.1120 ca         1 <0>      -0.127600
      2 C2          -2.4660     1.0870     8.5150 ca         1 <0>      -0.127600
      3 C3          -2.5210     1.3000     2.7600 ca         1 <0>      -0.126600
      4 C4           1.2810    -2.1050     0.5510 ca         1 <0>      -0.130900
      5 C5           2.4480     0.0100     0.6180 ca         1 <0>      -0.130900
      6 C6          -1.3640     1.8700     8.1730 ca         1 <0>      -0.130900
      7 C7          -2.5310    -0.2450     8.1050 ca         1 <0>      -0.130900
      8 C8          -2.5750    -0.0590     3.0670 ca         1 <0>      -0.130500
      9 C9          -1.4090     2.0560     3.1340 ca         1 <0>      -0.130500
     10 C10          2.8080    -1.7490     6.1970 ca         1 <0>      -0.132100
     11 C11          1.2380    -2.1260     1.9450 ca         1 <0>      -0.111700
     12 C12          2.4050    -0.0110     2.0120 ca         1 <0>      -0.111700
     13 C13         -0.3250     1.3210     7.4210 ca         1 <0>      -0.111700
     14 C14         -1.4920    -0.7940     7.3540 ca         1 <0>      -0.111700
     15 C15         -1.5190    -0.6630     3.7480 ca         1 <0>      -0.108700
     16 C16         -0.3530     1.4520     3.8160 ca         1 <0>      -0.108700
     17 C17          2.8110    -1.7050     4.8030 ca         1 <0>      -0.117000
     18 C18          1.7480    -1.1870     6.9100 ca         1 <0>      -0.117000
     19 C19          1.8000    -1.0790     2.6760 cp         1 <0>      -0.040800
     20 C20         -0.3890    -0.0110     7.0110 cp         1 <0>      -0.040800
     21 C21         -0.4070     0.0920     4.1230 cq         1 <0>      -0.034900
     22 C22          1.7550    -1.1010     4.1220 cp         1 <0>      -0.032000
     23 C23          0.6920    -0.5830     6.2290 cp         1 <0>      -0.032000
     24 C24          0.6950    -0.5390     4.8350 cq         1 <0>      -0.013200
     25 H1           1.9210    -1.0220    -1.1980 ha         1 <0>       0.128900
     26 H2          -3.2740     1.5140     9.1020 ha         1 <0>       0.128900
     27 H3          -3.3420     1.7700     2.2280 ha         1 <0>       0.128900
     28 H4           0.8450    -2.9210    -0.0180 ha         1 <0>       0.131400
     29 H5           2.9200     0.8400     0.1030 ha         1 <0>       0.131400
     30 H6          -1.3130     2.9060     8.4940 ha         1 <0>       0.131400
     31 H7          -3.3880    -0.8550     8.3730 ha         1 <0>       0.131400
     32 H8          -3.4390    -0.6480     2.7740 ha         1 <0>       0.130000
     33 H9          -1.3650     3.1140     2.8940 ha         1 <0>       0.130000
     34 H10          3.6310    -2.2190     6.7280 ha         1 <0>       0.133200
     35 H11          0.7630    -2.9650     2.4470 ha         1 <0>       0.135200
     36 H12          2.8480     0.8120     2.5690 ha         1 <0>       0.135200
     37 H13          0.5280     1.9440     7.1630 ha         1 <0>       0.135200
     38 H14         -1.5560    -1.8340     7.0420 ha         1 <0>       0.135200
     39 H15         -1.5760    -1.7240     3.9800 ha         1 <0>       0.132300
     40 H16          0.5070     2.0530     4.1010 ha         1 <0>       0.132300
     41 H17          3.6460    -2.1460     4.2630 ha         1 <0>       0.139600
     42 H18          1.7630    -1.2300     7.9970 ha         1 <0>       0.139600
@<TRIPOS>BOND
     1     1     4 ar  
     2     1     5 ar  
     3     2     6 ar  
     4     2     7 ar  
     5     3     8 ar  
     6     3     9 ar  
     7     4    11 ar  
     8     5    12 ar  
     9     6    13 ar  
    10     7    14 ar  
    11     8    15 ar  
    12     9    16 ar  
    13    10    17 ar  
    14    10    18 ar  
    15    11    19 ar  
    16    12    19 ar  
    17    13    20 ar  
    18    14    20 ar  
    19    15    21 1   
    20    16    21 2   
    21    17    22 ar  
    22    18    23 ar  
    23    19    22 1   
    24    20    23 1   
    25    21    24 1   
    26    22    24 1   
    27    23    24 2   
    28     1    25 1   
    29     2    26 1   
    30     3    27 1   
    31     4    28 1   
    32     5    29 1   
    33     6    30 1   
    34     7    31 1   
    35     8    32 1   
    36     9    33 1   
    37    10    34 1   
    38    11    35 1   
    39    12    36 1   
    40    13    37 1   
    41    14    38 1   
    42    15    39 1   
    43    16    40 1   
    44    17    41 1   
    45    18    42 1   
@<TRIPOS>SUBSTRUCTURE
     1 <0>         1 TEMP              0 ****  ****    0 ROOT
