@<TRIPOS>MOLECULE
1,2,3-triphenylbenzene
   42    45     0     0     0
SMALL
USER_CHARGES

@<TRIPOS>ATOM
      1 C1          1.8872   -1.0368   -0.1450 C.ar      1 <0>        -0.1276
      2 C2         -2.4890    1.0988    8.5317 C.ar      1 <0>        -0.1276
      3 C3         -2.5357    1.3091    2.7489 C.ar      1 <0>        -0.1266
      4 C4          1.2787   -2.1142    0.5236 C.ar      1 <0>        -0.1309
      5 C5          2.4553    0.0179    0.5918 C.ar      1 <0>        -0.1309
      6 C6         -1.3762    1.8875    8.1887 C.ar      1 <0>        -0.1309
      7 C7         -2.5527   -0.2445    8.1201 C.ar      1 <0>        -0.1309
      8 C8         -2.5911   -0.0616    3.0590 C.ar      1 <0>        -0.1305
      9 C9         -1.4154    2.0706    3.1272 C.ar      1 <0>        -0.1305
     10 C10         2.8376   -1.7650    6.2186 C.ar      1 <0>        -0.1321
     11 C11         1.2409   -2.1377    1.9293 C.ar      1 <0>        -0.1117
     12 C12         2.4171   -0.0066    1.9975 C.ar      1 <0>        -0.1117
     13 C13        -0.3262    1.3317    7.4360 C.ar      1 <0>        -0.1117
     14 C14        -1.5021   -0.7995    7.3675 C.ar      1 <0>        -0.1117
     15 C15        -1.5261   -0.6701    3.7471 C.ar      1 <0>        -0.1087
     16 C16        -0.3510    1.4608    3.8152 C.ar      1 <0>        -0.1087
     17 C17         2.8392   -1.7206    4.8140 C.ar      1 <0>        -0.1170
     18 C18         1.7690   -1.1989    6.9346 C.ar      1 <0>        -0.1170
     19 C19         1.8097   -1.0841    2.6674 C.ar      1 <0>        -0.0408
     20 C20        -0.3885   -0.0118    7.0245 C.ar      1 <0>        -0.0408
     21 C21        -0.4044    0.0898    4.1263 C.ar      1 <0>        -0.0349
     22 C22         1.7760   -1.1122    4.1219 C.ar      1 <0>        -0.0320
     23 C23         0.7014   -0.5883    6.2514 C.ar      1 <0>        -0.0320
     24 C24         0.6998   -0.5419    4.8389 C.ar      1 <0>        -0.0132
     25 H1          1.9152   -1.0177   -1.2250 H         1 <0>         0.1289
     26 H2         -3.2965    1.5259    9.1088 H         1 <0>         0.1289
     27 H3         -3.3536    1.7769    2.2202 H         1 <0>         0.1289
     28 H4          0.8368   -2.9220   -0.0415 H         1 <0>         0.1314
     29 H5          2.9178    0.8488    0.0792 H         1 <0>         0.1314
     30 H6         -1.3289    2.9212    8.4992 H         1 <0>         0.1314
     31 H7         -3.4096   -0.8496    8.3781 H         1 <0>         0.1314
     32 H8         -3.4509   -0.6477    2.7688 H         1 <0>         0.1300
     33 H9         -1.3715    3.1234    2.8895 H         1 <0>         0.1300
     34 H10         3.6561   -2.2333    6.7469 H         1 <0>         0.1332
     35 H11         0.7707   -2.9616    2.4458 H         1 <0>         0.1352
     36 H12         2.8487    0.8038    2.5663 H         1 <0>         0.1352
     37 H13         0.5279    1.9359    7.1674 H         1 <0>         0.1352
     38 H14        -1.5499   -1.8296    7.0464 H         1 <0>         0.1352
     39 H15        -1.5658   -1.7221    3.9861 H         1 <0>         0.1323
     40 H16         0.5102    2.0429    4.1066 H         1 <0>         0.1323
     41 H17         3.6590   -2.1547    4.2597 H         1 <0>         0.1396
     42 H18         1.7640   -1.2309    8.0147 H         1 <0>         0.1396
@<TRIPOS>BOND
     1    1    4 ar
     2    1    5 ar
     3    2    6 ar
     4    2    7 ar
     5    3    8 ar
     6    3    9 ar
     7    4   11 ar
     8    5   12 ar
     9    6   13 ar
    10    7   14 ar
    11    8   15 ar
    12    9   16 ar
    13   10   17 ar
    14   10   18 ar
    15   11   19 ar
    16   12   19 ar
    17   13   20 ar
    18   14   20 ar
    19   15   21 ar
    20   16   21 ar
    21   17   22 ar
    22   18   23 ar
    23   19   22 1
    24   20   23 1
    25   21   24 1
    26   22   24 ar
    27   23   24 ar
    28    1   25 1
    29    2   26 1
    30    3   27 1
    31    4   28 1
    32    5   29 1
    33    6   30 1
    34    7   31 1
    35    8   32 1
    36    9   33 1
    37   10   34 1
    38   11   35 1
    39   12   36 1
    40   13   37 1
    41   14   38 1
    42   15   39 1
    43   16   40 1
    44   17   41 1
    45   18   42 1
