@<TRIPOS>MOLECULE
3-[3-(2-thienyl)-2-furyl]-1~{H}-pyrrole
   24    26     0     0     0
SMALL
USER_CHARGES

@<TRIPOS>ATOM
      1 C1          0.8817    4.4505   -0.0542 C.2       1 <0>        -0.1555
      2 C2          0.9462    3.0102   -0.1791 C.2       1 <0>        -0.1563
      3 C3          0.1092    0.9846    2.0871 C.2       1 <0>        -0.1528
      4 C4         -0.7751    0.5573   -2.3776 C.2       1 <0>        -0.2458
      5 C5          0.6760    0.5534    3.2328 C.2       1 <0>        -0.1720
      6 C6          1.0781   -1.0032    1.6439 C.2       1 <0>        -0.1248
      7 C7         -0.7535   -0.7830   -2.2574 C.2       1 <0>         0.2313
      8 C8         -0.2293    4.9578   -0.6277 C.2       1 <0>        -0.1830
      9 C9          0.3778   -0.0071    1.0607 C.2       1 <0>        -0.2229
     10 C10        -0.3096    1.0876   -1.1184 C.2       1 <0>        -0.1374
     11 C11        -0.0692    0.0115   -0.3281 C.2       1 <0>         0.3472
     12 C12        -0.1252    2.5015   -0.8254 C.2       1 <0>        -0.0209
     13 N1          1.2744   -0.6614    2.9666 N.pl3     1 <0>        -0.1756
     14 O1         -0.3234   -1.0921   -1.0368 O.3       1 <0>        -0.3468
     15 S1         -1.2442    3.7347   -1.3409 S.3       1 <0>         0.0308
     16 H1          1.6367    5.0478    0.4379 H         1 <0>         0.1503
     17 H2          1.7609    2.4079    0.1982 H         1 <0>         0.1521
     18 H3         -0.4552    1.8988    1.9583 H         1 <0>         0.1617
     19 H4         -1.0724    1.1234   -3.2475 H         1 <0>         0.1626
     20 H5          0.6525    1.0639    4.1859 H         1 <0>         0.1682
     21 H6          1.4149   -1.9084    1.1561 H         1 <0>         0.1736
     22 H7         -1.0367   -1.4900   -3.0237 H         1 <0>         0.0520
     23 H8         -0.4675    6.0112   -0.6462 H         1 <0>         0.1676
     24 H9          1.7657   -1.2285    3.6437 H         1 <0>         0.2965
@<TRIPOS>BOND
     1    1    2 1
     2    1    8 2
     3    2   12 2
     4    3    5 2
     5    3    9 1
     6    4    7 2
     7    4   10 1
     8    5   13 1
     9    6    9 2
    10    6   13 1
    11    7   14 1
    12    8   15 1
    13    9   11 1
    14   10   11 2
    15   10   12 1
    16   11   14 1
    17   12   15 1
    18    1   16 1
    19    2   17 1
    20    3   18 1
    21    4   19 1
    22    5   20 1
    23    6   21 1
    24    7   22 1
    25    8   23 1
    26   13   24 1
