@<TRIPOS>MOLECULE
1,2,3,4-tetraphenylbenzene
   52    56     0     0     0
SMALL
USER_CHARGES

@<TRIPOS>ATOM
      1 C1          1.8880   -1.0349   -0.1583 C.ar      1 <0>        -0.1275
      2 C2          1.2001   -1.0317   11.1738 C.ar      1 <0>        -0.1272
      3 C3          6.1236   -3.4717    2.9309 C.ar      1 <0>        -0.1263
      4 C4          5.7787   -3.4704    8.6203 C.ar      1 <0>        -0.1263
      5 C5          2.4525    0.0213    0.5792 C.ar      1 <0>        -0.1306
      6 C6          1.2762   -2.1108    0.5099 C.ar      1 <0>        -0.1306
      7 C7          0.6736   -2.1079   10.4370 C.ar      1 <0>        -0.1306
      8 C8          1.8497    0.0242   10.5094 C.ar      1 <0>        -0.1306
      9 C9          6.1587   -2.1113    3.2861 C.ar      1 <0>        -0.1302
     10 C10         4.9822   -4.2430    3.2148 C.ar      1 <0>        -0.1302
     11 C11         4.6799   -4.2418    8.2010 C.ar      1 <0>        -0.1302
     12 C12         5.8565   -2.1102    8.2713 C.ar      1 <0>        -0.1302
     13 C13         2.4031    0.0025    1.9847 C.ar      1 <0>        -0.1115
     14 C14         1.2272   -2.1290    1.9155 C.ar      1 <0>        -0.1115
     15 C15         0.7952   -2.1270    9.0360 C.ar      1 <0>        -0.1115
     16 C16         1.9709    0.0045    9.1083 C.ar      1 <0>        -0.1115
     17 C17         5.0522   -1.5226    3.9242 C.ar      1 <0>        -0.1084
     18 C18         3.8763   -3.6534    3.8529 C.ar      1 <0>        -0.1084
     19 C19         3.6591   -3.6525    7.4336 C.ar      1 <0>        -0.1084
     20 C20         4.8352   -1.5218    7.5039 C.ar      1 <0>        -0.1084
     21 C21         0.6314   -0.5011    4.7488 C.ar      1 <0>        -0.1191
     22 C22         0.5465   -0.5007    6.1507 C.ar      1 <0>        -0.1191
     23 C23         1.7916   -1.0731    2.6538 C.ar      1 <0>        -0.0419
     24 C24         1.4450   -1.0716    8.3707 C.ar      1 <0>        -0.0419
     25 C25         3.9096   -2.2926    4.2085 C.ar      1 <0>        -0.0352
     26 C26         3.7353   -2.2919    7.0840 C.ar      1 <0>        -0.0352
     27 C27         1.7354   -1.0895    4.1077 C.ar      1 <0>        -0.0311
     28 C28         1.5650   -1.0888    6.9207 C.ar      1 <0>        -0.0311
     29 C29         2.7641   -1.6826    4.8734 C.ar      1 <0>        -0.0158
     30 C30         2.6786   -1.6823    6.2853 C.ar      1 <0>        -0.0158
     31 H1          1.9273   -1.0216   -1.2382 H         1 <0>         0.1290
     32 H2          1.1084   -1.0177   12.2505 H         1 <0>         0.1290
     33 H3          6.9737   -3.9245    2.4410 H         1 <0>         0.1287
     34 H4          6.5633   -3.9230    9.2094 H         1 <0>         0.1287
     35 H5          2.9274    0.8456    0.0671 H         1 <0>         0.1315
     36 H6          0.8470   -2.9252   -0.0554 H         1 <0>         0.1315
     37 H7          0.1790   -2.9220   10.9468 H         1 <0>         0.1315
     38 H8          2.2589    0.8489   11.0748 H         1 <0>         0.1315
     39 H9          7.0353   -1.5182    3.0702 H         1 <0>         0.1300
     40 H10         4.9546   -5.2883    2.9440 H         1 <0>         0.1300
     41 H11         4.6198   -5.2870    8.4668 H         1 <0>         0.1300
     42 H12         6.7006   -1.5170    8.5911 H         1 <0>         0.1300
     43 H13         2.8390    0.8105    2.5539 H         1 <0>         0.1354
     44 H14         0.7613   -2.9556    2.4316 H         1 <0>         0.1354
     45 H15         0.3950   -2.9538    8.4677 H         1 <0>         0.1354
     46 H16         2.4723    0.8123    8.5955 H         1 <0>         0.1354
     47 H17         5.0766   -0.4788    4.1991 H         1 <0>         0.1329
     48 H18         2.9991   -4.2432    4.0732 H         1 <0>         0.1329
     49 H19         2.8149   -4.2424    7.1094 H         1 <0>         0.1329
     50 H20         4.8927   -0.4781    7.2336 H         1 <0>         0.1329
     51 H21        -0.1527   -0.0486    4.1586 H         1 <0>         0.1410
     52 H22        -0.3032   -0.0480    6.6417 H         1 <0>         0.1410
@<TRIPOS>BOND
     1    1    5 ar
     2    1    6 ar
     3    2    7 ar
     4    2    8 ar
     5    3    9 ar
     6    3   10 ar
     7    4   11 ar
     8    4   12 ar
     9    5   13 ar
    10    6   14 ar
    11    7   15 ar
    12    8   16 ar
    13    9   17 ar
    14   10   18 ar
    15   11   19 ar
    16   12   20 ar
    17   13   23 ar
    18   14   23 ar
    19   15   24 ar
    20   16   24 ar
    21   17   25 ar
    22   18   25 ar
    23   19   26 ar
    24   20   26 ar
    25   21   22 ar
    26   21   27 ar
    27   22   28 ar
    28   23   27 1
    29   24   28 1
    30   25   29 1
    31   26   30 1
    32   27   29 ar
    33   28   30 ar
    34   29   30 ar
    35    1   31 1
    36    2   32 1
    37    3   33 1
    38    4   34 1
    39    5   35 1
    40    6   36 1
    41    7   37 1
    42    8   38 1
    43    9   39 1
    44   10   40 1
    45   11   41 1
    46   12   42 1
    47   13   43 1
    48   14   44 1
    49   15   45 1
    50   16   46 1
    51   17   47 1
    52   18   48 1
    53   19   49 1
    54   20   50 1
    55   21   51 1
    56   22   52 1
