@<TRIPOS>MOLECULE
3-methylenepenta-1,4-diene
   14    13     0     0     0
SMALL
USER_CHARGES

@<TRIPOS>ATOM
      1 C1         -2.2991    0.6243   -1.8023 C.2       1 <0>        -0.2095
      2 C2         -3.1085   -3.4332   -1.9070 C.2       1 <0>        -0.2095
      3 C3         -2.2127   -2.0027   -4.3483 C.2       1 <0>        -0.1998
      4 C4         -2.0323   -0.0310   -2.9576 C.2       1 <0>        -0.1284
      5 C5         -2.3164   -2.3345   -1.9275 C.2       1 <0>        -0.1284
      6 C6         -2.2102   -1.4724   -3.1015 C.2       1 <0>        -0.0525
      7 H1         -2.1590    1.6941   -1.7486 H         1 <0>         0.1132
      8 H2         -2.6643    0.0996   -0.9319 H         1 <0>         0.1132
      9 H3         -3.1642   -4.0393   -1.0144 H         1 <0>         0.1132
     10 H4         -3.7029   -3.7056   -2.7669 H         1 <0>         0.1132
     11 H5         -2.2986   -3.0688   -4.4953 H         1 <0>         0.1156
     12 H6         -2.1132   -1.3637   -5.2132 H         1 <0>         0.1156
     13 H7         -1.6941    0.5423   -3.8098 H         1 <0>         0.1221
     14 H8         -1.7600   -2.0761   -1.0374 H         1 <0>         0.1221
@<TRIPOS>BOND
     1    1    4 2
     2    2    5 2
     3    3    6 2
     4    4    6 1
     5    5    6 1
     6    1    7 1
     7    1    8 1
     8    2    9 1
     9    2   10 1
    10    3   11 1
    11    3   12 1
    12    4   13 1
    13    5   14 1
