@<TRIPOS>MOLECULE
1,2-diphenylbenzene
   32    34     0     0     0
SMALL
USER_CHARGES

@<TRIPOS>ATOM
      1 C1          1.8863   -1.0348   -0.1389 C.ar      1 <0>        -0.1280
      2 C2          6.1669   -3.4994    3.0408 C.ar      1 <0>        -0.1278
      3 C3          2.4528    0.0204    0.5988 C.ar      1 <0>        -0.1313
      4 C4          1.2770   -2.1120    0.5296 C.ar      1 <0>        -0.1313
      5 C5          5.0186   -4.2661    3.3090 C.ar      1 <0>        -0.1313
      6 C6          6.1948   -2.1341    3.3778 C.ar      1 <0>        -0.1313
      7 C7          0.5607   -0.5081    6.1793 C.ar      1 <0>        -0.1299
      8 C8          1.5850   -1.0975    6.9404 C.ar      1 <0>        -0.1299
      9 C9          2.4090   -0.0015    2.0046 C.ar      1 <0>        -0.1122
     10 C10         1.2335   -2.1332    1.9355 C.ar      1 <0>        -0.1122
     11 C11         3.8991   -3.6677    3.9153 C.ar      1 <0>        -0.1122
     12 C12         5.0750   -1.5363    3.9842 C.ar      1 <0>        -0.1122
     13 C13         0.6415   -0.5074    4.7754 C.ar      1 <0>        -0.1194
     14 C14         2.6884   -1.6853    6.2965 C.ar      1 <0>        -0.1194
     15 C15         1.7997   -1.0782    2.6738 C.ar      1 <0>        -0.0398
     16 C16         3.9264   -2.3025    4.2535 C.ar      1 <0>        -0.0398
     17 C17         1.7440   -1.0946    4.1274 C.ar      1 <0>        -0.0280
     18 C18         2.7729   -1.6867    4.8917 C.ar      1 <0>        -0.0280
     19 H1          1.9206   -1.0186   -1.2190 H         1 <0>         0.1292
     20 H2          7.0269   -3.9588    2.5744 H         1 <0>         0.1292
     21 H3          2.9230    0.8471    0.0862 H         1 <0>         0.1313
     22 H4          0.8436   -2.9239   -0.0362 H         1 <0>         0.1313
     23 H5          4.9954   -5.3143    3.0482 H         1 <0>         0.1313
     24 H6          7.0755   -1.5439    3.1699 H         1 <0>         0.1313
     25 H7         -0.2882   -0.0558    6.6720 H         1 <0>         0.1327
     26 H8          1.5249   -1.0992    8.0194 H         1 <0>         0.1327
     27 H9          2.8457    0.8058    2.5744 H         1 <0>         0.1347
     28 H10         0.7688   -2.9603    2.4521 H         1 <0>         0.1347
     29 H11         3.0145   -4.2531    4.1198 H         1 <0>         0.1347
     30 H12         5.0921   -0.4873    4.2415 H         1 <0>         0.1347
     31 H13        -0.1447   -0.0548    4.1885 H         1 <0>         0.1380
     32 H14         3.4766   -2.1389    6.8799 H         1 <0>         0.1380
@<TRIPOS>BOND
     1    1    3 ar
     2    1    4 ar
     3    2    5 ar
     4    2    6 ar
     5    3    9 ar
     6    4   10 ar
     7    5   11 ar
     8    6   12 ar
     9    7    8 ar
    10    7   13 ar
    11    8   14 ar
    12    9   15 ar
    13   10   15 ar
    14   11   16 ar
    15   12   16 ar
    16   13   17 ar
    17   14   18 ar
    18   15   17 1
    19   16   18 1
    20   17   18 ar
    21    1   19 1
    22    2   20 1
    23    3   21 1
    24    4   22 1
    25    5   23 1
    26    6   24 1
    27    7   25 1
    28    8   26 1
    29    9   27 1
    30   10   28 1
    31   11   29 1
    32   12   30 1
    33   13   31 1
    34   14   32 1
