@<TRIPOS>MOLECULE
biphenyl
   22    23     0     0     0
SMALL
USER_CHARGES

@<TRIPOS>ATOM
      1 C1          1.8864   -1.0355   -0.1479 C.ar      1 <0>        -0.1282
      2 C2          1.6683   -1.1434    6.9452 C.ar      1 <0>        -0.1281
      3 C3          0.9089   -0.2932    0.5373 C.ar      1 <0>        -0.1301
      4 C4          2.8205   -1.8002    0.5727 C.ar      1 <0>        -0.1301
      5 C5          2.8862   -0.9129    6.2822 C.ar      1 <0>        -0.1301
      6 C6          0.4933   -1.3535    6.2023 C.ar      1 <0>        -0.1301
      7 C7          0.8655   -0.3157    1.9431 C.ar      1 <0>        -0.1198
      8 C8          2.7769   -1.8218    1.9785 C.ar      1 <0>        -0.1198
      9 C9          2.9291   -0.8926    4.8764 C.ar      1 <0>        -0.1198
     10 C10         0.5367   -1.3325    4.7966 C.ar      1 <0>        -0.1198
     11 C11         1.7994   -1.0798    2.6700 C.ar      1 <0>        -0.0375
     12 C12         1.7546   -1.1019    4.1272 C.ar      1 <0>        -0.0375
     13 H1          1.9197   -1.0186   -1.2279 H         1 <0>         0.1303
     14 H2          1.6352   -1.1593    8.0252 H         1 <0>         0.1303
     15 H3          0.1920    0.2969   -0.0156 H         1 <0>         0.1313
     16 H4          3.5705   -2.3734    0.0468 H         1 <0>         0.1313
     17 H5          3.7894   -0.7488    6.8523 H         1 <0>         0.1313
     18 H6         -0.4429   -1.5335    6.7111 H         1 <0>         0.1313
     19 H7          0.1195    0.2647    2.4660 H         1 <0>         0.1362
     20 H8          3.4897   -2.4193    2.5279 H         1 <0>         0.1362
     21 H9          3.8650   -0.7044    4.3710 H         1 <0>         0.1362
     22 H10        -0.3664   -1.5051    4.2296 H         1 <0>         0.1362
@<TRIPOS>BOND
     1    1    3 ar
     2    1    4 ar
     3    2    5 ar
     4    2    6 ar
     5    3    7 ar
     6    4    8 ar
     7    5    9 ar
     8    6   10 ar
     9    7   11 ar
    10    8   11 ar
    11    9   12 ar
    12   10   12 ar
    13   11   12 1
    14    1   13 1
    15    2   14 1
    16    3   15 1
    17    4   16 1
    18    5   17 1
    19    6   18 1
    20    7   19 1
    21    8   20 1
    22    9   21 1
    23   10   22 1
