@<TRIPOS>MOLECULE
_
   16    14     0     0     0
SMALL
NO_CHARGES

@<TRIPOS>ATOM
      1 C1         -1.6530    0.6105    1.1990 C.2       1 <0>         0.0000
      2 C2         -1.0284    0.3448   -0.1340 C.3       1 <0>         0.0000
      3 O1         -2.6517    0.0533    1.6296 O.2       1 <0>         0.0000
      4 O2         -0.9598    1.5616    1.8714 O.3       1 <0>         0.0000
      5 H1         -1.4624    1.0088   -0.8857 H         1 <0>         0.0000
      6 H2          0.0533    0.4881   -0.0723 H         1 <0>         0.0000
      7 H3         -1.2259   -0.6905   -0.4265 H         1 <0>         0.0000
      8 H4         -0.1896    1.8857    1.3576 H         1 <0>         0.0000
      9 C3         -5.6530    0.6105   -2.8010 C.2       1 <0>         0.0000
     10 C4         -5.0284    0.3448   -4.1340 C.3       1 <0>         0.0000
     11 O3         -6.6517    0.0533   -2.3704 O.2       1 <0>         0.0000
     12 O4         -4.9598    1.5616   -2.1286 O.3       1 <0>         0.0000
     13 H5         -5.4624    1.0088   -4.8857 H         1 <0>         0.0000
     14 H6         -3.9467    0.4881   -4.0723 H         1 <0>         0.0000
     15 H7         -5.2259   -0.6905   -4.4265 H         1 <0>         0.0000
     16 H8         -4.1896    1.8857   -2.6424 H         1 <0>         0.0000
@<TRIPOS>BOND
     1    1    2 1
     2    1    3 2
     3    1    4 1
     4    2    5 1
     5    2    6 1
     6    2    7 1
     7    4    8 1
     8    9   10 1
     9    9   11 2
    10    9   12 1
    11   10   13 1
    12   10   14 1
    13   10   15 1
    14   12   16 1
