@<TRIPOS>MOLECULE
_
   16    14     0     0     0
SMALL
NO_CHARGES

@<TRIPOS>ATOM
      1 C1         -2.1448    0.9471   -0.3360 C.2       1 <0>         0.0000
      2 C2         -1.1867    0.5937    0.7842 C.3       1 <0>         0.0000
      3 O1         -2.8194    0.0526   -0.8312 O.2       1 <0>         0.0000
      4 O2         -2.2092    2.2369   -0.7442 O.3       1 <0>         0.0000
      5 H1         -0.1627    0.7086    0.4320 H         1 <0>         0.0000
      6 H2         -1.3650    1.2462    1.6374 H         1 <0>         0.0000
      7 H3         -1.3476   -0.4415    1.0859 H         1 <0>         0.0000
      8 H4         -1.6069    2.7913   -0.2504 H         1 <0>         0.0000
      9 C3         -4.7189   -0.3216   -3.5644 C.2       1 <0>         0.0000
     10 C4         -4.9585    1.0553   -2.9761 C.3       1 <0>         0.0000
     11 O3         -5.3087   -0.6163   -4.5956 O.2       1 <0>         0.0000
     12 O4         -3.8641   -1.1536   -2.9216 O.3       1 <0>         0.0000
     13 H5         -4.0375    1.6335   -3.0305 H         1 <0>         0.0000
     14 H6         -5.7386    1.5625   -3.5426 H         1 <0>         0.0000
     15 H7         -5.2726    0.9546   -1.9386 H         1 <0>         0.0000
     16 H8         -3.4939   -0.7245   -2.1299 H         1 <0>         0.0000
@<TRIPOS>BOND
     1    1    2 1
     2    1    3 2
     3    1    4 1
     4    2    5 1
     5    2    6 1
     6    2    7 1
     7    4    8 1
     8    9   10 1
     9    9   11 2
    10    9   12 1
    11   10   13 1
    12   10   14 1
    13   10   15 1
    14   12   16 1
